
OS:Version,
  {6765988b-341b-401a-b07b-ac29ac5a159c}, !- Handle
  2.1.0;                                  !- Version Identifier

OS:Site,
  {b3bae159-aaf6-44b7-a7a5-8215c4c73a3c}, !- Handle
  EL PASO INTL AP,                        !- Name
  31.77,                                  !- Latitude {deg}
  -106.5,                                 !- Longitude {deg}
  -7,                                     !- Time Zone {hr}
  1186,                                   !- Elevation {m}
  City;                                   !- Terrain

OS:SimulationControl,
  {0d81f48c-6edc-4fba-ae56-7f9e1a7c631a}, !- Handle
  Yes,                                    !- Do Zone Sizing Calculation
  Yes,                                    !- Do System Sizing Calculation
  Yes,                                    !- Do Plant Sizing Calculation
  No,                                     !- Run Simulation for Sizing Periods
  Yes,                                    !- Run Simulation for Weather File Run Periods
  0.04,                                   !- Loads Convergence Tolerance Value
  0.2,                                    !- Temperature Convergence Tolerance Value {deltaC}
  FullInteriorAndExterior,                !- Solar Distribution
  40,                                     !- Maximum Number of Warmup Days
  6;                                      !- Minimum Number of Warmup Days

OS:Surface,
  {211eccee-9239-49a8-a483-fabf7eb8b269}, !- Handle
  FineStorage_Wall_North,                 !- Name
  Wall,                                   !- Surface Type
  ,                                       !- Construction Name
  {4a035398-e49d-42c2-ab5b-4a4c6a2d73f7}, !- Space Name
  Outdoors,                               !- Outside Boundary Condition
  ,                                       !- Outside Boundary Condition Object
  SunExposed,                             !- Sun Exposure
  WindExposed,                            !- Wind Exposure
  ,                                       !- View Factor to Ground
  ,                                       !- Number of Vertices
  45.7178, 30.4785, 8.534,                !- X,Y,Z Vertex 1 {m}
  45.7178, 30.4785, 0,                    !- X,Y,Z Vertex 2 {m}
  0, 30.4785, 0,                          !- X,Y,Z Vertex 3 {m}
  0, 30.4785, 8.534;                      !- X,Y,Z Vertex 4 {m}

OS:Space,
  {4a035398-e49d-42c2-ab5b-4a4c6a2d73f7}, !- Handle
  Zone2 Fine Storage,                     !- Name
  {bfe260cc-0547-4106-aa43-724cb079d63e}, !- Space Type Name
  ,                                       !- Default Construction Set Name
  ,                                       !- Default Schedule Set Name
  0,                                      !- Direction of Relative North {deg}
  0,                                      !- X Origin {m}
  0,                                      !- Y Origin {m}
  0,                                      !- Z Origin {m}
  {c91c347e-1c8f-4bb2-a34c-8f2cf4839ea9}, !- Building Story Name
  {c0177b8a-05b9-45fd-b988-a43d9c8214ef}, !- Thermal Zone Name
  Yes,                                    !- Part of Total Floor Area
  ;                                       !- Design Specification Outdoor Air Object Name

OS:Output:Meter,
  {603bb984-d5d1-481d-883f-931975bd1e2e}, !- Handle
  ExteriorEquipment:Electricity,          !- Name
  hourly,                                 !- Reporting Frequency
  False,                                  !- Meter File Only
  False;                                  !- Cumulative

OS:Surface,
  {5632f764-50e7-4311-b2fb-ac2f2163dbe7}, !- Handle
  Fine Storage Office_Wall_West,          !- Name
  Wall,                                   !- Surface Type
  ,                                       !- Construction Name
  {4a035398-e49d-42c2-ab5b-4a4c6a2d73f7}, !- Space Name
  Outdoors,                               !- Outside Boundary Condition
  ,                                       !- Outside Boundary Condition Object
  SunExposed,                             !- Sun Exposure
  WindExposed,                            !- Wind Exposure
  ,                                       !- View Factor to Ground
  ,                                       !- Number of Vertices
  0, 9.1435, 8.534,                       !- X,Y,Z Vertex 1 {m}
  0, 9.1435, 4.267,                       !- X,Y,Z Vertex 2 {m}
  0, 0, 4.267,                            !- X,Y,Z Vertex 3 {m}
  0, 0, 8.534;                            !- X,Y,Z Vertex 4 {m}

OS:RunPeriod,
  {6d4582a3-bce4-4390-9499-103c445d48c3}, !- Handle
  Run Period 1,                           !- Name
  1,                                      !- Begin Month
  1,                                      !- Begin Day of Month
  12,                                     !- End Month
  31,                                     !- End Day of Month
  No,                                     !- Use Weather File Holidays and Special Days
  No,                                     !- Use Weather File Daylight Saving Period
  No,                                     !- Apply Weekend Holiday Rule
  Yes,                                    !- Use Weather File Rain Indicators
  Yes,                                    !- Use Weather File Snow Indicators
  1;                                      !- Number of Times Runperiod to be Repeated

OS:YearDescription,
  {75efc61a-0c03-4656-a8df-b7920151e86d}, !- Handle
  ,                                       !- Calendar Year
  Sunday;                                 !- Day of Week for Start Day

OS:Space,
  {6d122caa-5590-45e8-b46b-87cdc21cf9dd}, !- Handle
  Zone1 Office,                           !- Name
  {ef9254e4-dbe4-4ca7-9265-c978d3304114}, !- Space Type Name
  ,                                       !- Default Construction Set Name
  ,                                       !- Default Schedule Set Name
  0,                                      !- Direction of Relative North {deg}
  0,                                      !- X Origin {m}
  0,                                      !- Y Origin {m}
  0,                                      !- Z Origin {m}
  {c91c347e-1c8f-4bb2-a34c-8f2cf4839ea9}, !- Building Story Name
  {d6fb3e38-88e5-4081-a8b5-2e58e1238321}, !- Thermal Zone Name
  Yes,                                    !- Part of Total Floor Area
  ;                                       !- Design Specification Outdoor Air Object Name

OS:Surface,
  {4834052f-80d4-4aa2-89fa-63d634fbae23}, !- Handle
  BulkStorage_Ceiling,                    !- Name
  RoofCeiling,                            !- Surface Type
  ,                                       !- Construction Name
  {5d98aa08-59f2-4a73-bec1-097ed7f67ab3}, !- Space Name
  Outdoors,                               !- Outside Boundary Condition
  ,                                       !- Outside Boundary Condition Object
  SunExposed,                             !- Sun Exposure
  WindExposed,                            !- Wind Exposure
  ,                                       !- View Factor to Ground
  ,                                       !- Number of Vertices
  45.7178, 30.4785, 8.534,                !- X,Y,Z Vertex 1 {m}
  45.7178, 100.579, 8.534,                !- X,Y,Z Vertex 2 {m}
  0, 100.579, 8.534,                      !- X,Y,Z Vertex 3 {m}
  0, 30.4785, 8.534;                      !- X,Y,Z Vertex 4 {m}

OS:Space,
  {5d98aa08-59f2-4a73-bec1-097ed7f67ab3}, !- Handle
  Zone3 Bulk Storage,                     !- Name
  {972fffcb-f3ee-4fde-9b34-4e8c5a08b265}, !- Space Type Name
  ,                                       !- Default Construction Set Name
  ,                                       !- Default Schedule Set Name
  0,                                      !- Direction of Relative North {deg}
  0,                                      !- X Origin {m}
  0,                                      !- Y Origin {m}
  0,                                      !- Z Origin {m}
  {c91c347e-1c8f-4bb2-a34c-8f2cf4839ea9}, !- Building Story Name
  {644d299c-c1e3-47d0-99a6-eb4c0d80744c}, !- Thermal Zone Name
  Yes,                                    !- Part of Total Floor Area
  ;                                       !- Design Specification Outdoor Air Object Name

OS:SubSurface,
  {8cc2d563-eb39-40f2-b72b-b201e4f078af}, !- Handle
  BulkStorage_Wall_West_OHDoor_2,         !- Name
  Door,                                   !- Sub Surface Type
  ,                                       !- Construction Name
  {f4649072-a856-4042-8195-fff86d6ea661}, !- Surface Name
  ,                                       !- Outside Boundary Condition Object
  ,                                       !- View Factor to Ground
  ,                                       !- Shading Control Name
  ,                                       !- Frame and Divider Name
  1,                                      !- Multiplier
  ,                                       !- Number of Vertices
  0, 84.8827, 3.0478,                     !- X,Y,Z Vertex 1 {m}
  0, 84.8827, 0,                          !- X,Y,Z Vertex 2 {m}
  0, 82.4444, 0,                          !- X,Y,Z Vertex 3 {m}
  0, 82.4444, 3.0478;                     !- X,Y,Z Vertex 4 {m}

OS:Surface,
  {f4649072-a856-4042-8195-fff86d6ea661}, !- Handle
  BulkStorage_Wall_West,                  !- Name
  Wall,                                   !- Surface Type
  ,                                       !- Construction Name
  {5d98aa08-59f2-4a73-bec1-097ed7f67ab3}, !- Space Name
  Outdoors,                               !- Outside Boundary Condition
  ,                                       !- Outside Boundary Condition Object
  SunExposed,                             !- Sun Exposure
  WindExposed,                            !- Wind Exposure
  ,                                       !- View Factor to Ground
  ,                                       !- Number of Vertices
  0, 100.579, 8.534,                      !- X,Y,Z Vertex 1 {m}
  0, 100.579, 0,                          !- X,Y,Z Vertex 2 {m}
  0, 30.4785, 0,                          !- X,Y,Z Vertex 3 {m}
  0, 30.4785, 8.534;                      !- X,Y,Z Vertex 4 {m}

OS:SubSurface,
  {c08e9098-3fb5-4a48-b084-686b18f58a44}, !- Handle
  Office_Wall_West Door,                  !- Name
  Door,                                   !- Sub Surface Type
  ,                                       !- Construction Name
  {c4e1876a-697e-4c45-a7ce-69c9e0b750b0}, !- Surface Name
  ,                                       !- Outside Boundary Condition Object
  ,                                       !- View Factor to Ground
  ,                                       !- Shading Control Name
  ,                                       !- Frame and Divider Name
  1,                                      !- Multiplier
  ,                                       !- Number of Vertices
  0, 5.029, 2.1335,                       !- X,Y,Z Vertex 1 {m}
  0, 5.029, 0,                            !- X,Y,Z Vertex 2 {m}
  0, 4.1146, 0,                           !- X,Y,Z Vertex 3 {m}
  0, 4.1146, 2.1335;                      !- X,Y,Z Vertex 4 {m}

OS:Surface,
  {c4e1876a-697e-4c45-a7ce-69c9e0b750b0}, !- Handle
  Office_Wall_West,                       !- Name
  Wall,                                   !- Surface Type
  ,                                       !- Construction Name
  {6d122caa-5590-45e8-b46b-87cdc21cf9dd}, !- Space Name
  Outdoors,                               !- Outside Boundary Condition
  ,                                       !- Outside Boundary Condition Object
  SunExposed,                             !- Sun Exposure
  WindExposed,                            !- Wind Exposure
  ,                                       !- View Factor to Ground
  ,                                       !- Number of Vertices
  0, 9.1435, 4.267,                       !- X,Y,Z Vertex 1 {m}
  0, 9.1435, 0,                           !- X,Y,Z Vertex 2 {m}
  0, 0, 0,                                !- X,Y,Z Vertex 3 {m}
  0, 0, 4.267;                            !- X,Y,Z Vertex 4 {m}

OS:Surface,
  {c19449a9-e627-4c44-8fb9-899ea884e797}, !- Handle
  Office_Wall_East,                       !- Name
  Wall,                                   !- Surface Type
  ,                                       !- Construction Name
  {6d122caa-5590-45e8-b46b-87cdc21cf9dd}, !- Space Name
  Outdoors,                               !- Outside Boundary Condition
  ,                                       !- Outside Boundary Condition Object
  SunExposed,                             !- Sun Exposure
  WindExposed,                            !- Wind Exposure
  ,                                       !- View Factor to Ground
  ,                                       !- Number of Vertices
  25.9067, 0, 4.267,                      !- X,Y,Z Vertex 1 {m}
  25.9067, 0, 0,                          !- X,Y,Z Vertex 2 {m}
  25.9067, 9.1435, 0,                     !- X,Y,Z Vertex 3 {m}
  25.9067, 9.1435, 4.267;                 !- X,Y,Z Vertex 4 {m}

OS:Output:Meter,
  {9483256b-f20c-4383-81e8-45d37a661196}, !- Handle
  WaterSystems:Electricity,               !- Name
  hourly,                                 !- Reporting Frequency
  False,                                  !- Meter File Only
  False;                                  !- Cumulative

OS:SubSurface,
  {2f9a2f25-642f-4bb2-9763-c3ec6a0dd572}, !- Handle
  Office_Wall_South Window2,              !- Name
  FixedWindow,                            !- Sub Surface Type
  {f46bdb3d-72ba-4120-bfb9-f17c1c12c84e}, !- Construction Name
  {1f187919-945f-45ee-a352-b2c6e94f3c91}, !- Surface Name
  ,                                       !- Outside Boundary Condition Object
  ,                                       !- View Factor to Ground
  ,                                       !- Shading Control Name
  ,                                       !- Frame and Divider Name
  1,                                      !- Multiplier
  ,                                       !- Number of Vertices
  18.5919, 0, 2.4393,                     !- X,Y,Z Vertex 1 {m}
  18.5919, 0, 0.9144,                     !- X,Y,Z Vertex 2 {m}
  22.2493, 0, 0.9144,                     !- X,Y,Z Vertex 3 {m}
  22.2493, 0, 2.4393;                     !- X,Y,Z Vertex 4 {m}

OS:Surface,
  {1f187919-945f-45ee-a352-b2c6e94f3c91}, !- Handle
  Office_Wall_South,                      !- Name
  Wall,                                   !- Surface Type
  ,                                       !- Construction Name
  {6d122caa-5590-45e8-b46b-87cdc21cf9dd}, !- Space Name
  Outdoors,                               !- Outside Boundary Condition
  ,                                       !- Outside Boundary Condition Object
  SunExposed,                             !- Sun Exposure
  WindExposed,                            !- Wind Exposure
  ,                                       !- View Factor to Ground
  ,                                       !- Number of Vertices
  0, 0, 4.267,                            !- X,Y,Z Vertex 1 {m}
  0, 0, 0,                                !- X,Y,Z Vertex 2 {m}
  25.9067, 0, 0,                          !- X,Y,Z Vertex 3 {m}
  25.9067, 0, 4.267;                      !- X,Y,Z Vertex 4 {m}

OS:Output:Meter,
  {710831a5-a129-4751-8284-c65857306fae}, !- Handle
  HeatRejection:Electricity,              !- Name
  hourly,                                 !- Reporting Frequency
  False,                                  !- Meter File Only
  False;                                  !- Cumulative

OS:SubSurface,
  {ed5b2741-ddf0-4b1a-b215-00a18ee85fce}, !- Handle
  BulkStorage_Wall_West_OHDoor_1,         !- Name
  Door,                                   !- Sub Surface Type
  ,                                       !- Construction Name
  {f4649072-a856-4042-8195-fff86d6ea661}, !- Surface Name
  ,                                       !- Outside Boundary Condition Object
  ,                                       !- View Factor to Ground
  ,                                       !- Shading Control Name
  ,                                       !- Frame and Divider Name
  1,                                      !- Multiplier
  ,                                       !- Number of Vertices
  0, 93.95, 3.0478,                       !- X,Y,Z Vertex 1 {m}
  0, 93.95, 0,                            !- X,Y,Z Vertex 2 {m}
  0, 91.5117, 0,                          !- X,Y,Z Vertex 3 {m}
  0, 91.5117, 3.0478;                     !- X,Y,Z Vertex 4 {m}

OS:Surface,
  {1221173d-ea85-4058-af2a-3d1ba32cddef}, !- Handle
  BulkStorage_Floor,                      !- Name
  Floor,                                  !- Surface Type
  ,                                       !- Construction Name
  {5d98aa08-59f2-4a73-bec1-097ed7f67ab3}, !- Space Name
  Ground,                                 !- Outside Boundary Condition
  ,                                       !- Outside Boundary Condition Object
  NoSun,                                  !- Sun Exposure
  NoWind,                                 !- Wind Exposure
  ,                                       !- View Factor to Ground
  ,                                       !- Number of Vertices
  45.7178, 100.579, 0,                    !- X,Y,Z Vertex 1 {m}
  45.7178, 30.4785, 0,                    !- X,Y,Z Vertex 2 {m}
  0, 30.4785, 0,                          !- X,Y,Z Vertex 3 {m}
  0, 100.579, 0;                          !- X,Y,Z Vertex 4 {m}

OS:Output:Meter,
  {ea3e89b5-ebbe-4fab-a4d9-770a77c40c24}, !- Handle
  Refrigeration:Electricity,              !- Name
  hourly,                                 !- Reporting Frequency
  False,                                  !- Meter File Only
  False;                                  !- Cumulative

OS:SubSurface,
  {7785dfe3-dc4b-4089-b61a-7cc021ca5e66}, !- Handle
  Office_Wall_West Window2,               !- Name
  FixedWindow,                            !- Sub Surface Type
  {f46bdb3d-72ba-4120-bfb9-f17c1c12c84e}, !- Construction Name
  {c4e1876a-697e-4c45-a7ce-69c9e0b750b0}, !- Surface Name
  ,                                       !- Outside Boundary Condition Object
  ,                                       !- View Factor to Ground
  ,                                       !- Shading Control Name
  ,                                       !- Frame and Divider Name
  1,                                      !- Multiplier
  ,                                       !- Number of Vertices
  0, 3.758, 2.4393,                       !- X,Y,Z Vertex 1 {m}
  0, 3.758, 0.9144,                       !- X,Y,Z Vertex 2 {m}
  0, 1.6245, 0.9144,                      !- X,Y,Z Vertex 3 {m}
  0, 1.6245, 2.4393;                      !- X,Y,Z Vertex 4 {m}

OS:Surface,
  {5dcd00d9-fd41-4fc4-b286-2da84d46695d}, !- Handle
  FineStorage_Wall_East,                  !- Name
  Wall,                                   !- Surface Type
  ,                                       !- Construction Name
  {4a035398-e49d-42c2-ab5b-4a4c6a2d73f7}, !- Space Name
  Outdoors,                               !- Outside Boundary Condition
  ,                                       !- Outside Boundary Condition Object
  SunExposed,                             !- Sun Exposure
  WindExposed,                            !- Wind Exposure
  ,                                       !- View Factor to Ground
  ,                                       !- Number of Vertices
  45.7178, 0, 8.534,                      !- X,Y,Z Vertex 1 {m}
  45.7178, 0, 0,                          !- X,Y,Z Vertex 2 {m}
  45.7178, 30.4785, 0,                    !- X,Y,Z Vertex 3 {m}
  45.7178, 30.4785, 8.534;                !- X,Y,Z Vertex 4 {m}

OS:Surface,
  {09c6a359-4e78-4b15-b3ab-684acb612890}, !- Handle
  FineStorage_Wall_South_1,               !- Name
  Wall,                                   !- Surface Type
  ,                                       !- Construction Name
  {4a035398-e49d-42c2-ab5b-4a4c6a2d73f7}, !- Space Name
  Outdoors,                               !- Outside Boundary Condition
  ,                                       !- Outside Boundary Condition Object
  SunExposed,                             !- Sun Exposure
  WindExposed,                            !- Wind Exposure
  ,                                       !- View Factor to Ground
  ,                                       !- Number of Vertices
  25.9067, 0, 8.534,                      !- X,Y,Z Vertex 1 {m}
  25.9067, 0, 0,                          !- X,Y,Z Vertex 2 {m}
  45.7178, 0, 0,                          !- X,Y,Z Vertex 3 {m}
  45.7178, 0, 8.534;                      !- X,Y,Z Vertex 4 {m}

OS:Output:Meter,
  {47551cc4-32d4-40bb-8d48-5968769890a9}, !- Handle
  ExteriorLights:Electricity,             !- Name
  hourly,                                 !- Reporting Frequency
  False,                                  !- Meter File Only
  False;                                  !- Cumulative

OS:SubSurface,
  {f82fd716-74e2-4717-9e57-f553b1618f0c}, !- Handle
  BulkStorage_Wall_East_Door_2,           !- Name
  Door,                                   !- Sub Surface Type
  ,                                       !- Construction Name
  {8d78c09b-cfec-413f-95c9-1e0d881493a9}, !- Surface Name
  ,                                       !- Outside Boundary Condition Object
  ,                                       !- View Factor to Ground
  ,                                       !- Shading Control Name
  ,                                       !- Frame and Divider Name
  1,                                      !- Multiplier
  ,                                       !- Number of Vertices
  45.718, 65.0716, 2.1335,                !- X,Y,Z Vertex 1 {m}
  45.718, 65.0716, 0,                     !- X,Y,Z Vertex 2 {m}
  45.718, 65.986, 0,                      !- X,Y,Z Vertex 3 {m}
  45.718, 65.986, 2.1335;                 !- X,Y,Z Vertex 4 {m}

OS:Surface,
  {8d78c09b-cfec-413f-95c9-1e0d881493a9}, !- Handle
  BulkStorage_Wall_East,                  !- Name
  Wall,                                   !- Surface Type
  ,                                       !- Construction Name
  {5d98aa08-59f2-4a73-bec1-097ed7f67ab3}, !- Space Name
  Outdoors,                               !- Outside Boundary Condition
  ,                                       !- Outside Boundary Condition Object
  SunExposed,                             !- Sun Exposure
  WindExposed,                            !- Wind Exposure
  ,                                       !- View Factor to Ground
  ,                                       !- Number of Vertices
  45.7178, 30.4785, 8.534,                !- X,Y,Z Vertex 1 {m}
  45.7178, 30.4785, 0,                    !- X,Y,Z Vertex 2 {m}
  45.7178, 100.579, 0,                    !- X,Y,Z Vertex 3 {m}
  45.7178, 100.579, 8.534;                !- X,Y,Z Vertex 4 {m}

OS:Output:Meter,
  {f430a7be-b99a-438a-a1a0-3c54576dff6a}, !- Handle
  Pumps:Electricity,                      !- Name
  hourly,                                 !- Reporting Frequency
  False,                                  !- Meter File Only
  False;                                  !- Cumulative

OS:Output:Meter,
  {2c5f3b93-c7d5-4b56-ad3c-65fecf93d781}, !- Handle
  Gas:Facility,                           !- Name
  hourly,                                 !- Reporting Frequency
  False,                                  !- Meter File Only
  False;                                  !- Cumulative

OS:Output:Meter,
  {3d76f705-847e-4aae-80f0-804592108f59}, !- Handle
  InteriorLights:Electricity,             !- Name
  hourly,                                 !- Reporting Frequency
  False,                                  !- Meter File Only
  False;                                  !- Cumulative

OS:SubSurface,
  {5a9c9d86-ebdd-457b-8c0a-ff874eb43ad6}, !- Handle
  BulkStorage_Wall_East_Door_1,           !- Name
  Door,                                   !- Sub Surface Type
  ,                                       !- Construction Name
  {8d78c09b-cfec-413f-95c9-1e0d881493a9}, !- Surface Name
  ,                                       !- Outside Boundary Condition Object
  ,                                       !- View Factor to Ground
  ,                                       !- Shading Control Name
  ,                                       !- Frame and Divider Name
  1,                                      !- Multiplier
  ,                                       !- Number of Vertices
  45.718, 47.5465, 2.1335,                !- X,Y,Z Vertex 1 {m}
  45.718, 47.5465, 0,                     !- X,Y,Z Vertex 2 {m}
  45.718, 48.4608, 0,                     !- X,Y,Z Vertex 3 {m}
  45.718, 48.4608, 2.1335;                !- X,Y,Z Vertex 4 {m}

OS:SubSurface,
  {499365cb-98fa-46d1-a4c0-87db5431834b}, !- Handle
  BulkStorage_Wall_West_OHDoor_4,         !- Name
  Door,                                   !- Sub Surface Type
  ,                                       !- Construction Name
  {f4649072-a856-4042-8195-fff86d6ea661}, !- Surface Name
  ,                                       !- Outside Boundary Condition Object
  ,                                       !- View Factor to Ground
  ,                                       !- Shading Control Name
  ,                                       !- Frame and Divider Name
  1,                                      !- Multiplier
  ,                                       !- Number of Vertices
  0, 66.7479, 3.0478,                     !- X,Y,Z Vertex 1 {m}
  0, 66.7479, 0,                          !- X,Y,Z Vertex 2 {m}
  0, 64.3097, 0,                          !- X,Y,Z Vertex 3 {m}
  0, 64.3097, 3.0478;                     !- X,Y,Z Vertex 4 {m}

OS:SubSurface,
  {305c4a88-37ac-4e11-a8ab-dcf956bd8418}, !- Handle
  Office_Wall_West Window1,               !- Name
  FixedWindow,                            !- Sub Surface Type
  {f46bdb3d-72ba-4120-bfb9-f17c1c12c84e}, !- Construction Name
  {c4e1876a-697e-4c45-a7ce-69c9e0b750b0}, !- Surface Name
  ,                                       !- Outside Boundary Condition Object
  ,                                       !- View Factor to Ground
  ,                                       !- Shading Control Name
  ,                                       !- Frame and Divider Name
  1,                                      !- Multiplier
  ,                                       !- Number of Vertices
  0, 7.5191, 2.4393,                      !- X,Y,Z Vertex 1 {m}
  0, 7.5191, 0.9144,                      !- X,Y,Z Vertex 2 {m}
  0, 5.3856, 0.9144,                      !- X,Y,Z Vertex 3 {m}
  0, 5.3856, 2.4393;                      !- X,Y,Z Vertex 4 {m}

OS:Building,
  {06dd853e-41a5-4d7a-9743-05c89b4314f9}, !- Handle
  DOE Ref 1980-2004-Warehouse-ASHRAE 169-2006-1A created: 2017-12-19 19:00:14 -0700, !- Name
  ,                                       !- Building Sector Type
  0,                                      !- North Axis {deg}
  ,                                       !- Nominal Floor to Floor Height {m}
  ,                                       !- Space Type Name
  {f709ee7a-145f-43e1-bb0f-820fdc20bd7d}, !- Default Construction Set Name
  ,                                       !- Default Schedule Set Name
  ,                                       !- Standards Number of Stories
  ,                                       !- Standards Number of Above Ground Stories
  Warehouse;                              !- Standards Building Type

OS:SubSurface,
  {e6872a52-2bbf-4d30-aa15-c2ee0dbf44bd}, !- Handle
  BulkStorage_Wall_East_Door_3,           !- Name
  Door,                                   !- Sub Surface Type
  ,                                       !- Construction Name
  {8d78c09b-cfec-413f-95c9-1e0d881493a9}, !- Surface Name
  ,                                       !- Outside Boundary Condition Object
  ,                                       !- View Factor to Ground
  ,                                       !- Shading Control Name
  ,                                       !- Frame and Divider Name
  1,                                      !- Multiplier
  ,                                       !- Number of Vertices
  45.718, 82.5968, 2.1335,                !- X,Y,Z Vertex 1 {m}
  45.718, 82.5968, 0,                     !- X,Y,Z Vertex 2 {m}
  45.718, 83.5111, 0,                     !- X,Y,Z Vertex 3 {m}
  45.718, 83.5111, 2.1335;                !- X,Y,Z Vertex 4 {m}

OS:ConvergenceLimits,
  {64f3b173-f852-4d94-b429-3376a587d8c6}, !- Handle
  2,                                      !- Minimum System Timestep {minutes}
  25;                                     !- Maximum HVAC Iterations

OS:Surface,
  {ba2283e7-f703-45e3-bf19-ade8375e27ea}, !- Handle
  BulkStorage_Wall_North,                 !- Name
  Wall,                                   !- Surface Type
  ,                                       !- Construction Name
  {5d98aa08-59f2-4a73-bec1-097ed7f67ab3}, !- Space Name
  Outdoors,                               !- Outside Boundary Condition
  ,                                       !- Outside Boundary Condition Object
  SunExposed,                             !- Sun Exposure
  WindExposed,                            !- Wind Exposure
  ,                                       !- View Factor to Ground
  ,                                       !- Number of Vertices
  45.7178, 100.579, 8.534,                !- X,Y,Z Vertex 1 {m}
  45.7178, 100.579, 0,                    !- X,Y,Z Vertex 2 {m}
  0, 100.579, 0,                          !- X,Y,Z Vertex 3 {m}
  0, 100.579, 8.534;                      !- X,Y,Z Vertex 4 {m}

OS:Output:Meter,
  {20ec8313-0ef6-4925-8296-9bdcfdd6c567}, !- Handle